26
c12h14.py
C 0.080278 6.759410 0.000000
C 0.652876 5.553117 0.000000
C -0.080278 4.300466 0.000000
C 0.500686 3.087545 0.000000
C -0.223307 1.838157 0.000000
C 0.361143 0.624379 0.000000
C -0.361143 -0.624379 0.000000
C 0.223307 -1.838157 0.000000
C -0.500686 -3.087545 0.000000
C 0.080278 -4.300466 0.000000
C -0.652876 -5.553117 0.000000
C -0.080278 -6.759410 0.000000
H 0.669048 7.670460 0.000000
H -1.000288 6.874626 0.000000
H 1.739327 5.476859 0.000000
H -1.167732 4.368660 0.000000
H 1.588670 3.024310 0.000000
H -1.311185 1.899816 0.000000
H 1.449131 0.563391 0.000000
H -1.449131 -0.563391 0.000000
H 1.311185 -1.899816 0.000000
H -1.588670 -3.024310 0.000000
H 1.167732 -4.368660 0.000000
H -1.739327 -5.476859 0.000000
H 1.000288 -6.874626 0.000000
H -0.669048 -7.670460 0.000000

