98
c48h50.py
C 0.0 0.0 0.0
C 0.0 1.3349708544009489 0.0
C 1.2793533167092666 2.073605836191684 0.0
C 1.2793533167092666 3.408576690592633 0.0
C 2.558706633418533 4.147211672383368 0.0
C 2.558706633418533 5.482182526784317 0.0
C 3.8380599501278 6.220817508575053 0.0
C 3.8380599501278 7.555788362976001 0.0
C 5.117413266837066 8.294423344766736 0.0
C 5.117413266837066 9.629394199167685 0.0
C 6.3967665835463325 10.36802918095842 0.0
C 6.3967665835463325 11.703000035359368 0.0
C 7.676119900255599 12.441635017150103 0.0
C 7.676119900255599 13.776605871551052 0.0
C 8.955473216964865 14.515240853341787 0.0
C 8.955473216964865 15.850211707742735 0.0
C 10.234826533674132 16.58884668953347 0.0
C 10.234826533674134 17.92381754393442 0.0
C 11.514179850383401 18.662452525725154 0.0
C 11.514179850383401 19.997423380126104 0.0
C 12.793533167092669 20.73605836191684 0.0
C 12.793533167092669 22.07102921631779 0.0
C 14.072886483801936 22.809664198108525 0.0
C 14.072886483801936 24.144635052509475 0.0
C 15.352239800511203 24.88327003430021 0.0
C 15.352239800511203 26.21824088870116 0.0
C 16.63159311722047 26.956875870491896 0.0
C 16.63159311722047 28.291846724892846 0.0
C 17.910946433929734 29.03048170668358 0.0
C 17.910946433929734 30.36545256108453 0.0
C 19.190299750639 31.104087542875266 0.0
C 19.190299750639 32.43905839727621 0.0
C 20.469653067348265 33.17769337906695 0.0
C 20.46965306734826 34.5126642334679 0.0
C 21.749006384057527 35.25129921525864 0.0
C 21.749006384057523 36.58627006965959 0.0
C 23.02835970076679 37.32490505145033 0.0
C 23.028359700766785 38.65987590585128 0.0
C 24.30771301747605 39.39851088764202 0.0
C 24.307713017476047 40.73348174204297 0.0
C 25.587066334185312 41.47211672383371 0.0
C 25.58706633418531 42.80708757823466 0.0
C 26.866419650894574 43.545722560025396 0.0
C 26.86641965089457 44.88069341442635 0.0
C 28.145772967603836 45.619328396217085 0.0
C 28.145772967603833 46.954299250618035 0.0
C 29.425126284313098 47.692934232408774 0.0
C 29.425126284313095 49.027905086809724 0.0
H -0.9398288600990078 -0.542610445370341 0.0
H 0.9398288600990078 -0.542610445370341 0.0
H -0.9411514043181364 1.878344871032219 0.0
H 2.221330007543493 1.5297553401681898 0.0
H 0.3382019123911302 3.951950707223903 0.0
H 3.5006833242527593 3.603361176359874 0.0
H 1.6175552291003965 6.025556543415587 0.0
H 4.7800366409620265 5.676967012551558 0.0
H 2.8969085458096635 8.099162379607272 0.0
H 6.059389957671293 7.750572848743242 0.0
H 4.176261862518929 10.172768215798955 0.0
H 7.338743274380559 9.824178684934926 0.0
H 5.455615179228197 12.246374051990639 0.0
H 8.618096591089826 11.89778452112661 0.0
H 6.734968495937462 14.319979888182322 0.0
H 9.897449907799091 13.971390357318294 0.0
H 8.01432181264673 16.393585724374006 0.0
H 11.176803224508358 16.044996193509974 0.0
H 9.293675129355998 18.46719156056569 0.0
H 12.456156541217627 18.11860202970166 0.0
H 10.573028446065265 20.540797396757373 0.0
H 13.735509857926894 20.192207865893344 0.0
H 11.852381762774533 22.61440323294906 0.0
H 15.014863174636162 22.26581370208503 0.0
H 13.1317350794838 24.688009069140744 0.0
H 16.29421649134543 24.339419538276715 0.0
H 14.411088396193067 26.76161490533243 0.0
H 17.573569808054696 26.4130253744684 0.0
H 15.690441712902333 28.835220741524115 0.0
H 18.85292312476396 28.486631210660086 0.0
H 16.969795029611596 30.9088265777158 0.0
H 20.132276441473227 30.56023704685177 0.0
H 18.24914834632086 32.98243241390748 0.0
H 21.411629758182492 32.63384288304346 0.0
H 19.528501663030124 35.05603825009917 0.0
H 22.690983074891754 34.707448719235146 0.0
H 20.807854979739385 37.12964408629086 0.0
H 23.970336391601016 36.781054555426834 0.0
H 22.087208296448647 39.20324992248255 0.0
H 25.249689708310278 38.85466039161852 0.0
H 23.36656161315791 41.27685575867424 0.0
H 26.52904302501954 40.92826622781021 0.0
H 24.64591492986717 43.350461594865926 0.0
H 27.808396341728802 43.0018720640019 0.0
H 25.925268246576433 45.424067431057615 0.0
H 29.087749658438064 45.07547790019359 0.0
H 27.204621563285695 47.497673267249304 0.0
H 30.367102975147326 47.14908373638528 0.0
H 30.3649551444121 49.57051553218007 0.0
H 28.485297424214085 49.57051553218006 0.0

