14
c6h8.py
C 1.201203 2.822494 0.000000
C 1.201203 1.488076 0.000000
C -0.000870 0.670756 0.000000
C 0.000870 -0.670756 0.000000
C -1.201203 -1.488076 0.000000
C -1.201203 -2.822494 0.000000
H 2.123718 3.393206 0.000000
H 0.274421 3.390043 0.000000
H 2.149436 0.952412 0.000000
H -0.952775 1.201247 0.000000
H 0.952775 -1.201247 0.000000
H -2.149436 -0.952412 0.000000
H -0.274421 -3.390043 0.000000
H -2.123718 -3.393206 0.000000

