178
c88h90.py
C 0.0 0.0 0.0
C 0.0 1.3349708544009489 0.0
C 1.2793533167092666 2.073605836191684 0.0
C 1.2793533167092666 3.408576690592633 0.0
C 2.558706633418533 4.147211672383368 0.0
C 2.558706633418533 5.482182526784317 0.0
C 3.8380599501278 6.220817508575053 0.0
C 3.8380599501278 7.555788362976001 0.0
C 5.117413266837066 8.294423344766736 0.0
C 5.117413266837066 9.629394199167685 0.0
C 6.3967665835463325 10.36802918095842 0.0
C 6.3967665835463325 11.703000035359368 0.0
C 7.676119900255599 12.441635017150103 0.0
C 7.676119900255599 13.776605871551052 0.0
C 8.955473216964865 14.515240853341787 0.0
C 8.955473216964865 15.850211707742735 0.0
C 10.234826533674132 16.58884668953347 0.0
C 10.234826533674134 17.92381754393442 0.0
C 11.514179850383401 18.662452525725154 0.0
C 11.514179850383401 19.997423380126104 0.0
C 12.793533167092669 20.73605836191684 0.0
C 12.793533167092669 22.07102921631779 0.0
C 14.072886483801936 22.809664198108525 0.0
C 14.072886483801936 24.144635052509475 0.0
C 15.352239800511203 24.88327003430021 0.0
C 15.352239800511203 26.21824088870116 0.0
C 16.63159311722047 26.956875870491896 0.0
C 16.63159311722047 28.291846724892846 0.0
C 17.910946433929734 29.03048170668358 0.0
C 17.910946433929734 30.36545256108453 0.0
C 19.190299750639 31.104087542875266 0.0
C 19.190299750639 32.43905839727621 0.0
C 20.469653067348265 33.17769337906695 0.0
C 20.46965306734826 34.5126642334679 0.0
C 21.749006384057527 35.25129921525864 0.0
C 21.749006384057523 36.58627006965959 0.0
C 23.02835970076679 37.32490505145033 0.0
C 23.028359700766785 38.65987590585128 0.0
C 24.30771301747605 39.39851088764202 0.0
C 24.307713017476047 40.73348174204297 0.0
C 25.587066334185312 41.47211672383371 0.0
C 25.58706633418531 42.80708757823466 0.0
C 26.866419650894574 43.545722560025396 0.0
C 26.86641965089457 44.88069341442635 0.0
C 28.145772967603836 45.619328396217085 0.0
C 28.145772967603833 46.954299250618035 0.0
C 29.425126284313098 47.692934232408774 0.0
C 29.425126284313095 49.027905086809724 0.0
C 30.70447960102236 49.76654006860046 0.0
C 30.704479601022356 51.10151092300141 0.0
C 31.983832917731622 51.84014590479215 0.0
C 31.98383291773162 53.1751167591931 0.0
C 33.26318623444088 53.91375174098384 0.0
C 33.26318623444087 55.24872259538479 0.0
C 34.542539551150135 55.98735757717553 0.0
C 34.54253955115013 57.32232843157648 0.0
C 35.82189286785939 58.06096341336722 0.0
C 35.82189286785938 59.39593426776817 0.0
C 37.101246184568645 60.13456924955891 0.0
C 37.10124618456864 61.46954010395986 0.0
C 38.3805995012779 62.2081750857506 0.0
C 38.38059950127789 63.54314594015155 0.0
C 39.659952817987154 64.28178092194229 0.0
C 39.65995281798715 65.61675177634324 0.0
C 40.93930613469641 66.35538675813397 0.0
C 40.9393061346964 67.69035761253492 0.0
C 42.218659451405664 68.42899259432566 0.0
C 42.21865945140566 69.76396344872661 0.0
C 43.49801276811492 70.50259843051735 0.0
C 43.49801276811491 71.8375692849183 0.0
C 44.77736608482417 72.57620426670904 0.0
C 44.777366084824166 73.91117512110999 0.0
C 46.05671940153343 74.64981010290073 0.0
C 46.05671940153342 75.98478095730168 0.0
C 47.33607271824268 76.72341593909242 0.0
C 47.336072718242676 78.05838679349337 0.0
C 48.61542603495194 78.79702177528411 0.0
C 48.61542603495193 80.13199262968506 0.0
C 49.89477935166119 80.8706276114758 0.0
C 49.894779351661185 82.20559846587675 0.0
C 51.17413266837045 82.94423344766749 0.0
C 51.17413266837044 84.27920430206844 0.0
C 52.4534859850797 85.01783928385917 0.0
C 52.453485985079695 86.35281013826012 0.0
C 53.73283930178896 87.09144512005086 0.0
C 53.73283930178895 88.42641597445181 0.0
C 55.01219261849821 89.16505095624255 0.0
C 55.012192618498204 90.5000218106435 0.0
H -0.9398288600990078 -0.542610445370341 0.0
H 0.9398288600990078 -0.542610445370341 0.0
H -0.9411514043181364 1.878344871032219 0.0
H 2.221330007543493 1.5297553401681898 0.0
H 0.3382019123911302 3.951950707223903 0.0
H 3.5006833242527593 3.603361176359874 0.0
H 1.6175552291003965 6.025556543415587 0.0
H 4.7800366409620265 5.676967012551558 0.0
H 2.8969085458096635 8.099162379607272 0.0
H 6.059389957671293 7.750572848743242 0.0
H 4.176261862518929 10.172768215798955 0.0
H 7.338743274380559 9.824178684934926 0.0
H 5.455615179228197 12.246374051990639 0.0
H 8.618096591089826 11.89778452112661 0.0
H 6.734968495937462 14.319979888182322 0.0
H 9.897449907799091 13.971390357318294 0.0
H 8.01432181264673 16.393585724374006 0.0
H 11.176803224508358 16.044996193509974 0.0
H 9.293675129355998 18.46719156056569 0.0
H 12.456156541217627 18.11860202970166 0.0
H 10.573028446065265 20.540797396757373 0.0
H 13.735509857926894 20.192207865893344 0.0
H 11.852381762774533 22.61440323294906 0.0
H 15.014863174636162 22.26581370208503 0.0
H 13.1317350794838 24.688009069140744 0.0
H 16.29421649134543 24.339419538276715 0.0
H 14.411088396193067 26.76161490533243 0.0
H 17.573569808054696 26.4130253744684 0.0
H 15.690441712902333 28.835220741524115 0.0
H 18.85292312476396 28.486631210660086 0.0
H 16.969795029611596 30.9088265777158 0.0
H 20.132276441473227 30.56023704685177 0.0
H 18.24914834632086 32.98243241390748 0.0
H 21.411629758182492 32.63384288304346 0.0
H 19.528501663030124 35.05603825009917 0.0
H 22.690983074891754 34.707448719235146 0.0
H 20.807854979739385 37.12964408629086 0.0
H 23.970336391601016 36.781054555426834 0.0
H 22.087208296448647 39.20324992248255 0.0
H 25.249689708310278 38.85466039161852 0.0
H 23.36656161315791 41.27685575867424 0.0
H 26.52904302501954 40.92826622781021 0.0
H 24.64591492986717 43.350461594865926 0.0
H 27.808396341728802 43.0018720640019 0.0
H 25.925268246576433 45.424067431057615 0.0
H 29.087749658438064 45.07547790019359 0.0
H 27.204621563285695 47.497673267249304 0.0
H 30.367102975147326 47.14908373638528 0.0
H 28.483974879994957 49.57127910344099 0.0
H 31.646456291856587 49.22268957257697 0.0
H 29.76332819670422 51.64488493963268 0.0
H 32.92580960856585 51.29629540876866 0.0
H 31.04268151341348 53.71849077582437 0.0
H 34.20516292527511 53.36990124496035 0.0
H 32.32203483012273 55.79209661201605 0.0
H 35.484516241984366 55.44350708115204 0.0
H 33.60138814683199 57.86570244820774 0.0
H 36.76386955869362 57.51711291734373 0.0
H 34.88074146354124 59.93930828439943 0.0
H 38.043222875402876 59.59071875353542 0.0
H 36.160094780250496 62.01291412059112 0.0
H 39.32257619211213 61.66432458972711 0.0
H 37.43944809695975 64.08651995678281 0.0
H 40.601929508821385 63.7379304259188 0.0
H 38.718801413669006 66.1601257929745 0.0
H 41.88128282553064 65.81153626211048 0.0
H 39.99815473037826 68.23373162916619 0.0
H 43.160636142239895 67.88514209830217 0.0
H 41.277508047087515 70.30733746535788 0.0
H 44.43998945894915 69.95874793449386 0.0
H 42.55686136379677 72.38094330154956 0.0
H 45.719342775658404 72.03235377068555 0.0
H 43.836214680506025 74.45454913774125 0.0
H 46.99869609236766 74.10595960687724 0.0
H 45.11556799721528 76.52815497393294 0.0
H 48.278049409076914 76.17956544306892 0.0
H 46.394921313924534 78.60176081012463 0.0
H 49.55740272578617 78.25317127926061 0.0
H 47.67427463063379 80.67536664631632 0.0
H 50.83675604249542 80.3267771154523 0.0
H 48.953627947343044 82.74897248250801 0.0
H 52.11610935920468 82.40038295164399 0.0
H 50.2329812640523 84.8225783186997 0.0
H 53.39546267591393 84.47398878783568 0.0
H 51.512334580761554 86.89618415489139 0.0
H 54.67481599262319 86.54759462402737 0.0
H 52.79168789747081 88.96978999108308 0.0
H 55.95416930933244 88.62120046021906 0.0
H 55.95202147859721 91.04263225601385 0.0
H 54.07236375839919 91.04263225601383 0.0

