44
benz-c16h18.py
C 0.0 0.0 0.0
C 0.0 1.3349708544009489 0.0
C 1.2793533167092666 2.073605836191684 0.0
C 1.2793533167092666 3.408576690592633 0.0
C 2.558706633418533 4.147211672383368 0.0
C 2.558706633418533 5.482182526784317 0.0
C 3.8380599501278 6.220817508575053 0.0
C 3.8380599501278 7.555788362976001 0.0
C 5.117413266837066 8.294423344766736 0.0
C 5.117413266837066 9.629394199167685 0.0
C 6.3967665835463325 10.36802918095842 0.0
C 6.3967665835463325 11.703000035359368 0.0
C 7.676119900255599 12.441635017150103 0.0
C 7.676119900255599 13.776605871551052 0.0
C 8.955473216964865 14.515240853341787 0.0
C 8.955473216964865 15.850211707742735 0.0
H -0.9398288600990078 -0.542610445370341 0.0
H 0.9398288600990078 -0.542610445370341 0.0
H -0.9411514043181364 1.878344871032219 0.0
H 2.221330007543493 1.5297553401681898 0.0
H 0.3382019123911302 3.951950707223903 0.0
H 3.5006833242527593 3.603361176359874 0.0
H 1.6175552291003965 6.025556543415587 0.0
H 4.7800366409620265 5.676967012551558 0.0
H 2.8969085458096635 8.099162379607272 0.0
H 6.059389957671293 7.750572848743242 0.0
H 4.176261862518929 10.172768215798955 0.0
H 7.338743274380559 9.824178684934926 0.0
H 5.455615179228197 12.246374051990639 0.0
H 8.618096591089826 11.89778452112661 0.0
H 6.734968495937462 14.319979888182322 0.0
H 9.897449907799091 13.971390357318294 0.0
H 8.015644356865858 16.392822153113077 0.0
C 10.234826533674132 16.58884668953347 0.0
C 10.234826533674134 17.97999013695361 0.0
C 11.439592099448241 18.67556186066368 0.0
C 12.644357665222346 17.979990136953607 0.0
C 12.644357665222342 16.588846689533465 0.0
C 11.439592099448236 15.893274965823398 0.0
H 9.286771456357949 18.527349991048702 0.0
H 11.439592099448241 19.770281568853864 0.0
H 13.592412742538533 18.5273499910487 0.0
H 13.592412742538528 16.04148683543837 0.0
H 11.439592099448232 14.798555257633215 0.0

