36
benz-c12h14.py
C 0.0 0.0 0.0
C 0.0 1.3349708544009489 0.0
C 1.2793533167092666 2.073605836191684 0.0
C 1.2793533167092666 3.408576690592633 0.0
C 2.558706633418533 4.147211672383368 0.0
C 2.558706633418533 5.482182526784317 0.0
C 3.8380599501278 6.220817508575053 0.0
C 3.8380599501278 7.555788362976001 0.0
C 5.117413266837066 8.294423344766736 0.0
C 5.117413266837066 9.629394199167685 0.0
C 6.3967665835463325 10.36802918095842 0.0
C 6.3967665835463325 11.703000035359368 0.0
H -0.9398288600990078 -0.542610445370341 0.0
H 0.9398288600990078 -0.542610445370341 0.0
H -0.9411514043181364 1.878344871032219 0.0
H 2.221330007543493 1.5297553401681898 0.0
H 0.3382019123911302 3.951950707223903 0.0
H 3.5006833242527593 3.603361176359874 0.0
H 1.6175552291003965 6.025556543415587 0.0
H 4.7800366409620265 5.676967012551558 0.0
H 2.8969085458096635 8.099162379607272 0.0
H 6.059389957671293 7.750572848743242 0.0
H 4.176261862518929 10.172768215798955 0.0
H 7.338743274380559 9.824178684934926 0.0
H 5.456937723447325 12.24561048072971 0.0
C 7.676119900255599 12.441635017150103 0.0
C 7.676119900255599 13.832778464570247 0.0
C 8.880885466029705 14.528350188280317 0.0
C 10.08565103180381 13.832778464570245 0.0
C 10.085651031803808 12.441635017150102 0.0
C 8.880885466029701 11.746063293440033 0.0
H 6.728064822939412 14.380138318665338 0.0
H 8.880885466029705 15.6230698964705 0.0
H 11.033706109119997 14.380138318665336 0.0
H 11.033706109119993 11.89427516305501 0.0
H 8.8808854660297 10.65134358524985 0.0

