160
0 1
C	3.546720	0.053978	-14.770415
C	3.260557	1.395327	-14.770719
C	2.813832	2.045660	-13.568223
C	1.738133	3.011694	-13.568363
C	1.043822	3.385598	-14.770991
C	-0.320350	3.527965	-14.770715
C	-1.076363	3.304905	-13.567920
C	-2.328308	2.582242	-13.567666
C	-2.899870	2.038967	-14.770357
C	-3.458144	0.785928	-14.770437
C	-3.479612	-0.002465	-13.567597
C	-3.178176	-1.415835	-13.567907
C	-2.836243	-2.126148	-14.770914
C	-1.815773	-3.043097	-14.771011
C	-1.073105	-3.307751	-13.568019
C	0.364348	-3.457457	-13.567793
C	1.145774	-3.352184	-14.770739
C	2.333690	-2.665896	-14.770548
C	2.814777	-2.041609	-13.567596
C	3.403316	-0.721485	-13.567661
C	3.440474	-0.003842	-12.340748
C	3.140472	1.405756	-12.341094
C	2.769238	2.017972	-11.098612
C	1.715213	2.965166	-11.098696
C	1.066976	3.268667	-12.341301
C	-0.366470	3.417645	-12.341024
C	-1.062781	3.253762	-11.098405
C	-2.289507	2.544862	-11.098247
C	-2.780120	2.023653	-12.340668
C	-3.366781	0.706960	-12.340619
C	-3.426328	-0.006227	-11.098211
C	-3.131715	-1.391674	-11.098340
C	-2.786430	-2.018630	-12.340910
C	-1.714000	-2.982474	-12.340926
C	-1.053818	-3.259144	-11.098390
C	0.355072	-3.405371	-11.098308
C	1.058039	-3.270850	-12.340761
C	2.306226	-2.549516	-12.340750
C	2.773602	-2.007632	-11.098211
C	3.350248	-0.713585	-11.098245
C	3.440531	0.003319	-9.856107
C	3.143756	1.399942	-9.856257
C	2.793762	2.028586	-8.626468
C	1.723032	2.990717	-8.626508
C	1.060855	3.271859	-9.856352
C	-0.359360	3.419103	-9.856252
C	-1.064749	3.280072	-8.626343
C	-2.310698	2.559813	-8.626234
C	-2.783644	2.017892	-9.855961
C	-3.365092	0.713527	-9.855917
C	-3.451679	-0.000389	-8.626157
C	-3.152687	-1.407701	-8.626196
C	-2.782918	-2.024785	-9.856088
C	-1.720350	-2.979647	-9.856127
C	-1.067542	-3.281718	-8.626190
C	0.363529	-3.430039	-8.626162
C	1.064362	-3.268804	-9.855981
C	2.300887	-2.554030	-9.855927
C	2.790363	-2.027071	-8.626185
C	3.376347	-0.712810	-8.626250
C	3.441698	0.005144	-7.392746
C	3.145590	1.399173	-7.392823
C	2.782985	2.026839	-6.150398
C	1.722448	2.979944	-6.150425
C	1.059872	3.273748	-7.392868
C	-0.357701	3.420665	-7.392806
C	-1.066181	3.269283	-6.150394
C	-2.300317	2.555713	-6.150332
C	-2.785285	2.017241	-7.392663
C	-3.365672	0.715319	-7.392623
C	-3.441698	-0.005145	-6.150221
C	-3.145590	-1.399174	-6.150144
C	-2.782985	-2.026839	-7.392569
C	-1.722449	-2.979945	-7.392542
C	-1.059872	-3.273749	-6.150099
C	0.357701	-3.420665	-6.150161
C	1.066181	-3.269283	-7.392573
C	2.300317	-2.555713	-7.392635
C	2.785285	-2.017242	-6.150304
C	3.365672	-0.715320	-6.150344
C	3.451679	0.000388	-4.916810
C	3.152687	1.407700	-4.916770
C	2.782917	2.024785	-3.686879
C	1.720349	2.979646	-3.686840
C	1.067542	3.281717	-4.916777
C	-0.363530	3.430039	-4.916805
C	-1.064362	3.268805	-3.686986
C	-2.300887	2.554030	-3.687040
C	-2.790363	2.027071	-4.916782
C	-3.376347	0.712809	-4.916717
C	-3.440531	-0.003320	-3.686860
C	-3.143756	-1.399943	-3.686710
C	-2.793762	-2.028586	-4.916498
C	-1.723032	-2.990718	-4.916459
C	-1.060855	-3.271859	-3.686615
C	0.359360	-3.419103	-3.686715
C	1.064749	-3.280072	-4.916624
C	2.310698	-2.559813	-4.916733
C	2.783644	-2.017893	-3.687006
C	3.365092	-0.713528	-3.687049
C	3.426327	0.006227	-2.444755
C	3.131714	1.391673	-2.444626
C	2.786429	2.018630	-1.202057
C	1.713999	2.982474	-1.202041
C	1.053818	3.259144	-2.444577
C	-0.355072	3.405372	-2.444659
C	-1.058039	3.270851	-1.202206
C	-2.306226	2.549517	-1.202217
C	-2.773602	2.007632	-2.444756
C	-3.350247	0.713585	-2.444721
C	-3.440473	0.003842	-1.202218
C	-3.140471	-1.405756	-1.201873
C	-2.769237	-2.017973	-2.444355
C	-1.715213	-2.965166	-2.444271
C	-1.066976	-3.268667	-1.201666
C	0.366470	-3.417646	-1.201943
C	1.062782	-3.253762	-2.444561
C	2.289508	-2.544862	-2.444720
C	2.780120	-2.023653	-1.202299
C	3.366781	-0.706960	-1.202348
C	3.479611	0.002465	0.024630
C	3.178175	1.415835	0.024940
C	2.836243	2.126149	1.227947
C	1.815772	3.043098	1.228044
C	1.073105	3.307751	0.025052
C	-0.364349	3.457458	0.024826
C	-1.145774	3.352185	1.227772
C	-2.333690	2.665897	1.227581
C	-2.814777	2.041610	0.024629
C	-3.403315	0.721485	0.024694
C	-3.546719	-0.053978	1.227448
C	-3.260555	-1.395327	1.227752
C	-2.813831	-2.045660	0.025257
C	-1.738132	-3.011694	0.025396
C	-1.043822	-3.385599	1.228024
C	0.320351	-3.527965	1.227748
C	1.076364	-3.304905	0.024953
C	2.328308	-2.582242	0.024699
C	2.899870	-2.038966	1.227390
C	3.458143	-0.785927	1.227471
H	-2.765474	2.559589	-15.720457
H	-3.756650	0.338992	-15.720672
H	-0.838178	3.673762	-15.720908
H	1.580415	3.421656	-15.721446
H	3.239437	1.932834	-15.721043
H	3.747011	-0.445492	-15.720379
H	2.836924	-2.476923	-15.720638
H	0.732691	-3.695497	-15.721211
H	-1.482355	-3.464750	-15.721292
H	-3.290427	-1.838504	-15.721072
H	-3.239435	-1.932834	2.178076
H	-3.747009	0.445492	2.177413
H	-2.836924	2.476924	2.177671
H	-0.732691	3.695499	2.178244
H	2.765473	-2.559589	2.177490
H	3.756649	-0.338991	2.177705
H	3.290426	1.838504	2.178105
H	1.482354	3.464751	2.178325
H	0.838179	-3.673762	2.177941
H	-1.580415	-3.421656	2.178480
