40
0 1
  H   -3.71855584367113      0.25227718446552     -1.54436441155366
  H   -1.42906375461913     -3.52595004639265     -1.54507659967858
  H   2.81397439735214     -2.38292923548007     -1.54815717064960
  H   3.20924144008009      2.02150712841796     -1.54219471551161
  H   -0.88114912834593      3.63343490232366     -1.54797875697755
  H   -2.85671012716644      2.34510983158902     -1.54516738681277
  H   -3.17525225178509     -2.04474320902959     -1.54797643459861
  H   0.92877571526124     -3.64865206775280     -1.54290957684771
  H   3.70143990716213     -0.19796870390769     -1.54770727420229
  H   1.40076086012485      3.53930940495171     -1.54408123819544
  C   -3.21984785247396     -1.54050510699759     -0.58462786489321
  C   0.43030362092392     -3.53992258289616     -0.58176585465616
  C   3.45644946514833     -0.63933684712729     -0.58419434014377
  C   1.73224696798389      3.15324753463633     -0.58235155186731
  C   -2.39942119647749      2.56338162818823     -0.58263529011859
  C   -3.53057146429439     -0.22071454358049     -0.58298916730922
  C   -0.92363219727948     -3.47060954311700     -0.58282881452684
  C   2.94579735970839     -1.89600637053093     -0.58426131929943
  C   2.77013348312452      2.28172048193117     -0.58138278738508
  C   -1.26399559970827      3.30498148444026     -0.58409150267108
  C   -3.45645225116627      0.63933873592248      0.58418387532520
  C   -1.73224607161784     -3.15324448267956      0.58234549099686
  C   2.39942138537672     -2.56338252625865      0.58262460033173
  C   3.21984869126147      1.54050571592321      0.58462227212697
  C   -0.43030562170778      3.53992185971122      0.58175838069912
  C   -2.94579944300294      1.89600744653809      0.58424960428645
  C   -2.77013196126808     -2.28171734690749      0.58137682250621
  C   1.26399649736564     -3.30498390319907      0.58408268845393
  C   3.53057091265208      0.22071428303890      0.58298156780149
  C   0.92363043348759      3.47060948483343      0.58282297002882
  H   -3.20923848311405     -2.02150278158557      1.54218759066052
  H   0.88115173066139     -3.63343697167657      1.54796960071444
  H   3.71855401060557     -0.25227972586125      1.54435637527462
  H   1.42906145323295      3.52595053419479      1.54507301587631
  H   -2.81397871161911      2.38293248369948      1.54814491737697
  H   -3.70144405366692      0.19797291586015      1.54769635382071
  H   -1.40075970445106     -3.53930573294643      1.54407562402296
  H   2.85671268295984     -2.34511132136066      1.54515736831912
  H   3.17525343403010      2.04474240706836      1.54797245357364
  H   -0.92877873106756      3.64864760155353      1.54290048570248
