60
0 1
C	-2.025837	-8.392724	-6.134865
C	0.947823	-5.675850	-7.054611
C	0.430575	-2.343166	-4.661571
C	-2.863751	-2.992274	-2.257719
C	-4.377025	-6.729772	-3.171603
C	-3.062695	-8.362914	-5.241192
C	0.264730	-6.856913	-7.170217
C	1.041371	-3.101405	-5.623396
C	-1.799709	-2.278014	-2.738556
C	-4.332917	-5.533468	-2.507126
C	0.443334	-7.893790	-6.190559
C	1.894094	-4.195623	-5.247749
C	-0.463451	-2.603880	-2.320630
C	-3.375831	-5.325726	-1.455207
C	-2.818094	-8.591399	-3.843087
C	-0.687022	-8.652450	-5.679888
C	1.847531	-5.466080	-5.953357
C	0.637834	-2.636185	-3.269993
C	-2.650861	-4.071340	-1.332074
C	-3.466387	-7.785322	-2.821512
C	-0.543182	-9.340799	-4.448985
C	2.369212	-6.618935	-5.314408
C	1.811464	-3.353245	-2.926513
C	-1.449984	-4.050862	-0.579033
C	-2.900744	-7.749052	-1.521852
C	-1.644484	-9.308491	-3.499611
C	1.644230	-7.873336	-5.437547
C	2.459766	-4.159334	-3.948100
C	-0.319610	-3.292192	-1.089708
C	-2.854179	-6.478579	-0.816231
C	1.857113	-8.952387	-4.511914
C	3.370383	-5.214874	-3.598015
C	1.019188	-3.551915	-0.634740
C	-1.954479	-6.268807	0.285004
C	-1.437223	-9.601500	-2.108050
C	0.793060	-9.666657	-4.031068
C	3.326279	-6.411193	-4.262499
C	2.056056	-3.581726	-1.528427
C	-1.271381	-5.087727	0.400607
C	-2.048026	-8.843253	-1.146214
H	-2.203251	-8.078036	-7.165203
H	0.697376	-4.848711	-7.721968
H	-0.321052	-1.609868	-4.961101
H	-3.852453	-2.827963	-2.691015
H	-5.008755	-6.821363	-4.057508
H	-4.044881	-8.025053	-5.577169
H	-0.516729	-6.946551	-7.927752
H	0.762813	-2.956434	-6.669483
H	-1.962189	-1.558980	-3.544215
H	-4.930238	-4.697228	-2.875676
H	2.845780	-9.116721	-4.078546
H	4.002094	-5.123362	-2.712086
H	1.196649	-3.866653	0.395574
H	-1.703969	-7.095931	0.952356
H	-0.685574	-10.334754	-1.808468
H	0.955583	-10.385650	-3.225381
H	3.923582	-7.247414	-3.893878
H	3.038207	-3.919636	-1.192398
H	-0.489906	-4.998172	1.158137
H	-1.769402	-8.988235	-0.100145
