100
0 1
C	-2.300974	-3.731013	1.165922
C	-2.453048	-2.582743	-2.833581
C	-6.459486	-2.187114	-3.901559
C	-8.790078	-3.090444	-0.568267
C	-6.212307	-4.044809	2.562582
C	-3.270968	-3.977055	2.099731
C	-1.830855	-2.931044	-1.664985
C	-5.107735	-2.156494	-4.115422
C	-8.572858	-2.722501	-1.868757
C	-7.432095	-3.849759	1.973291
C	-1.746303	-1.990372	-0.574578
C	-4.312968	-1.064880	-3.608339
C	-8.126327	-1.387648	-2.185419
C	-7.919794	-2.514320	1.729776
C	-3.978136	-2.885768	2.723052
C	-1.973876	-2.376784	0.792351
C	-3.031035	-1.270248	-2.990189
C	-7.107011	-1.128874	-3.166457
C	-8.574313	-2.148095	0.502687
C	-5.398209	-2.918197	2.947020
C	-2.303776	-1.360336	1.734060
C	-2.517755	-0.244515	-2.145501
C	-6.425384	0.120835	-3.117704
C	-8.628383	-0.767963	0.154309
C	-6.077215	-1.683342	3.152582
C	-3.325754	-1.619851	2.718063
C	-1.862728	-0.611694	-0.913848
C	-5.001421	0.153389	-3.343148
C	-8.399556	-0.380231	-1.216194
C	-7.362837	-1.477671	2.532606
C	-1.743990	0.382068	0.108376
C	-4.272358	1.294189	-2.881351
C	-8.030002	0.976161	-1.480041
C	-7.828913	-0.134056	2.379452
C	-3.944899	-0.500289	3.357571
C	-1.968665	0.001646	1.453488
C	-3.010306	1.092355	-2.273485
C	-7.026943	1.230927	-2.445776
C	-8.471926	0.226317	1.170801
C	-5.342525	-0.532218	3.578488
C	-2.271472	1.028230	2.416511
C	-2.472564	2.138450	-1.442992
C	-6.356588	2.504683	-2.421108
C	-8.557498	1.622324	0.828095
C	-6.029123	0.710201	3.817826
C	-3.274538	0.773463	3.382251
C	-1.829547	1.778074	-0.234333
C	-4.958954	2.536612	-2.642029
C	-8.332822	2.002748	-0.517025
C	-7.291182	0.912037	3.209956
C	-1.673098	2.772348	0.782154
C	-4.224267	3.687727	-2.216120
C	-7.997708	3.364720	-0.797595
C	-7.783727	2.248899	3.081968
C	-3.876096	1.883550	4.054170
C	-1.901924	2.384615	2.152661
C	-2.938642	3.482056	-1.596142
C	-6.975727	3.624237	-1.781599
C	-8.438754	2.616079	1.850314
C	-5.300061	1.850995	4.279616
C	-2.175171	3.392038	3.121882
C	-2.381700	4.518706	-0.793292
C	-6.323331	4.890154	-1.786569
C	-8.555163	3.994764	1.511038
C	-5.988516	3.069273	4.544794
C	-3.194475	3.133270	4.102905
C	-1.727191	4.152486	0.433780
C	-4.903277	4.922582	-2.010539
C	-8.327595	4.381171	0.144126
C	-7.270432	3.274639	3.926650
C	-1.511408	5.094844	1.504743
C	-4.089167	6.049209	-1.626112
C	-8.000504	5.735411	-0.229455
C	-7.848432	4.587139	3.770046
C	-3.842001	4.191512	4.838025
C	-1.728622	4.726903	2.805222
C	-2.869392	5.854162	-1.036823
C	-7.030513	5.981452	-1.163253
C	-8.470621	4.935439	2.601455
C	-5.193743	4.160891	5.051891
H	-1.871872	-4.568455	0.611688
H	-2.627104	-3.349279	-3.592066
H	-7.021189	-3.082747	-4.175719
H	-8.999871	-4.137220	-0.338164
H	-5.802781	-5.055956	2.615217
H	-3.597098	-5.005279	2.270621
H	-1.518324	-3.966650	-1.515791
H	-4.618429	-3.029330	-4.552906
H	-8.613292	-3.484087	-2.650958
H	-7.970153	-4.709453	1.568361
H	-1.301572	6.141601	1.274593
H	-4.498713	7.060345	-1.678814
H	-8.429640	6.572843	0.324767
H	-7.674390	5.353665	4.528544
H	-3.280265	5.087121	5.112196
H	-1.688152	5.488450	3.587458
H	-2.331273	6.713826	-0.631913
H	-6.704377	7.009666	-1.334189
H	-8.783173	5.971038	2.452260
H	-5.683060	5.033707	5.489403
