165
Sn2inCNT_RC
 C                 -1.90152700   -3.44957400   11.72803500
 C                 -2.66105400   -2.97354600   10.63254300
 C                 -1.99721900   -3.32415700    9.40179000
 C                 -0.61549700   -3.77804700    9.39294500
 C                  0.13486800   -3.91237600   10.61392500
 C                 -0.73384500   -3.83669800   11.72558500
 C                  1.53246600   -3.68657700   10.61102800
 C                  2.19740200   -3.32776500    9.38473500
 C                  1.50302300   -3.54097700    8.15202200
 C                  0.10757300   -3.75996700    8.15720800
 C                  2.33326100   -3.33016300   11.72031900
 C                  3.30973000   -2.58132200   11.71898000
 C                  3.85596100   -1.88959400   10.61501700
 C                  3.34892400   -2.44387200    9.38646500
 C                  3.73555100   -1.82931700    8.15374200
 C                  4.25358800   -0.51915400    8.15876100
 C                  4.37905500    0.19008200    9.39668400
 C                  4.36971000   -0.56833500   10.62135500
 C                  3.29478700   -2.39629600    6.90639600
 C                  2.16388100   -3.24910300    6.90567800
 C                  1.50685800   -3.52597200    5.68057600
 C                  0.08623700   -3.74149600    5.68604800
 C                 -0.61798100   -3.68231900    6.91493400
 C                 -1.96473800   -3.23785700    6.92432600
 C                 -2.57593200   -2.86901300    8.17520000
 C                  3.74449700   -1.83933600    5.68219200
 C                  3.28856700   -2.38493100    4.45388400
 C                  2.15522700   -3.23271200    4.45380300
 C                  1.48807900   -3.51439400    3.20998000
 C                  0.09136300   -3.73239900    3.21508800
 C                 -0.62700600   -3.66137400    4.46122200
 C                 -1.96996100   -3.21758700    4.46803800
 C                 -2.57729300   -2.85982800    5.70053900
 C                  3.73827800   -1.81770300    3.20939400
 C                  3.33888000   -2.41902100    1.97661300
 C                  2.17435400   -3.29031900    1.97867400
 C                  1.49879600   -3.62919700    0.75175400
 C                  0.09952700   -3.84108700    0.75650900
 C                 -0.63713400   -3.72247000    1.98864900
 C                 -2.01549500   -3.26783300    1.99628700
 C                 -2.59938300   -2.84238900    3.23035000
 C                  3.85428900   -1.86285300    0.74908900
 C                  3.27771400   -2.52140100   -0.35948000
 C                  2.29177400   -3.26063700   -0.35928000
 C                 -2.69909300   -2.92889500    0.77407000
 C                 -1.94952600   -3.38275900   -0.33158100
 C                 -0.77859200   -3.76667800   -0.34701700
 C                 -3.58796900   -1.83396000    3.24098400
 C                 -3.99412600   -1.22285700    2.01329400
 C                 -3.67439900   -1.90671300    0.78029600
 C                 -3.56099300   -1.81825500    5.71102000
 C                 -3.91350000   -1.19387400    4.49062000
 C                 -4.19844200    0.19344600    4.49009800
 C                 -4.14363400    0.91180200    3.24273700
 C                 -4.28887600    0.19974200    2.01580000
 C                 -4.26206000    0.95815900    0.78871700
 C                 -4.29718500    0.09211600   -0.32887600
 C                 -4.03993700   -1.11197100   -0.32744100
 C                 -3.60118600    2.21620800    3.24076600
 C                 -3.20643300    2.82126500    2.00989500
 C                 -3.72876800    2.26559200    0.78832000
 C                 -4.12911100    0.90668100    5.72251500
 C                 -3.58221800    2.23346300    5.71770400
 C                 -3.13489500    2.77561900    4.48220000
 C                 -1.99447700    3.61355200    4.47613700
 C                 -1.34267600    3.90539400    3.22662700
 C                 -2.04609500    3.69687400    2.00153500
 C                 -1.37060600    4.02193500    0.76818000
 C                 -2.16773300    3.65135100   -0.33739200
 C                 -3.15886200    2.92097200   -0.32690400
 C                  0.05500200    4.12005000    3.22177400
 C                  0.77563200    4.12694300    1.98951500
 C                  0.02653300    4.23929300    0.76334400
 C                 -1.33525700    3.90298000    5.69846100
 C                  0.07884700    4.13505600    5.69449000
 C                  0.78214600    4.06108600    4.46554700
 C                  2.12990200    3.63412300    4.46490200
 C                  2.74321400    3.25401300    3.21881500
 C                  2.15817300    3.68176600    1.98772400
 C                  2.83427500    3.34451200    0.75887700
 C                  2.07594200    3.79019900   -0.34497100
 C                  0.90099100    4.16112300   -0.34484900
 C                  3.72185700    2.23497000    3.21871800
 C                  4.11094600    1.62667000    1.98564000
 C                  3.81089200    2.32195200    0.75753000
 C                  2.75043700    3.27672300    5.69249100
 C                  3.74207100    2.23764200    5.69248700
 C                  4.06078200    1.59577400    4.46361400
 C                  4.33901100    0.20753500    4.46157400
 C                  4.27313200   -0.51044200    3.21329700
 C                  4.40257500    0.20398500    1.98245900
 C                  4.38797400   -0.55142200    0.75206900
 C                  4.44276500    0.32603000   -0.35374200
 C                  4.19359100    1.53193800   -0.34835100
 C                  4.28073700   -0.50720200    5.68730300
 C                  4.32629700    0.20332700    6.91548100
 C                  4.05522800    1.59569500    6.91876200
 C                  3.72156600    2.23861300    8.16590800
 C                  2.75811900    3.27065200    8.16427300
 C                  2.14080300    3.64711100    6.91896400
 C                  0.79299400    4.08088500    6.91738700
 C                  0.07378900    4.15525400    8.16198600
 C                 -1.31926300    3.93675500    8.16528000
 C                 -1.98349000    3.63448200    6.92565000
 C                 -3.12299600    2.79174200    6.93741800
 C                 -3.55800400    2.23475700    8.18914100
 C                 -4.08861000    0.92784700    8.19522600
 C                 -4.16064600    0.19509000    6.95427400
 C                 -3.87344400   -1.18925000    6.94505100
 C                 -3.53402600   -1.83463000    8.18406000
 C                  4.09933800    1.61640800    9.39925400
 C                  3.80284200    2.31368900   10.62738900
 C                  2.84663800    3.36011200   10.62234100
 C                  2.17687500    3.71213400    9.39562300
 C                  0.79900800    4.17194700    9.39329900
 C                  0.05655400    4.31443700   10.61905100
 C                 -1.34336900    4.10174100   10.62486400
 C                 -2.01094700    3.73750400    9.40229000
 C                 -3.16453300    2.85577800    9.41478400
 C                 -3.65828400    2.29778300   10.64658300
 C                 -4.15981500    0.97167100   10.65609300
 C                 -4.19519300    0.21176500    9.42939600
 C                 -3.91304400   -1.21672900    9.42123700
 C                 -3.60589900   -1.91850100   10.64642000
 C                  4.40808300    0.30535200   11.73081100
 C                  4.16681900    1.51257200   11.73579400
 C                  0.93422300    4.23359800   11.72311600
 C                  2.09999700    3.83530700   11.72851800
 C                 -3.11475800    2.99242400   11.75162300
 C                 -2.14430500    3.75041800   11.73304000
 C                 -3.95026000   -1.10800100   11.75284700
 C                 -4.18227500    0.09977300   11.76694800
 C                 -0.81870000    0.17756900    3.69726100
 H                 -0.18301400    1.00922600    3.98992400
 H                 -1.81755800    0.27972800    4.11196100
 H                 -0.39213400   -0.77109100    4.02760100
 Cl                -0.91705000    0.15423800    1.88831500
 N                 -1.12015000    0.33663000    6.75413500
 H                 -0.90867900   -0.66928200    6.80448300
 H                 -1.57086300    0.58851700    7.63623000
 H                 -0.21582400    0.81885600    6.72328400
 H                  4.24026389    2.00991564   12.68033365
 H                  4.67647222   -0.13023561   12.67056132
 H                  3.79992738   -2.43809426   12.65924185
 H                  2.06088400   -3.75765635   12.66263540
 H                 -0.33285837   -4.14988140   12.66687448
 H                 -2.40374694   -3.47588139   12.67248354
 H                 -4.01741874   -1.60829142   12.69629769
 H                 -4.42521314    0.53285878   12.71474427
 H                 -3.59369759    2.84504928   12.69703167
 H                 -1.87625198    4.19579109   12.66828884
 H                  0.54053436    4.55588729   12.66441238
 H                  2.60390565    3.84988984   12.67232064
 H                  4.27641735    2.03806686   -1.28743213
 H                  4.73015311   -0.10086426   -1.29186212
 H                  3.75017240   -2.36027565   -1.30590574
 H                  2.00369165   -3.66911675   -1.30535233
 H                 -0.38703514   -4.07533863   -1.29375447
 H                 -2.46016359   -3.39517019   -1.27179119
 H                 -4.10022905   -1.61182981   -1.27158402
 H                 -4.57432695    0.52553955   -1.26708513
 H                  2.57863147    3.80796956   -1.28936896
 H                  0.49679465    4.45755471   -1.29018151
 H                 -1.87866553    4.04877493   -1.28786253
 H                 -3.64340040    2.76473297   -1.26802668

