238
OEC_A
Mn -24.870583 -35.532849 203.968793
Mn -27.358540 -35.263867 205.244880 
Mn -27.347796 -33.370597 203.184344 
Mn -27.606000 -33.205036 200.442303 
Ca -27.875214 -36.772038 202.210931 
O -26.430998 -36.528195 204.227101 
O -28.376315 -34.763614 203.816320 
O -26.026424 -34.081823 204.516540 
O -28.527051 -32.646423 202.012540 
O -26.791827 -34.331457 201.700264 
O -28.476387 -31.724354 199.346337 
O -26.680483 -33.815996 198.964815 
O -27.552089 -37.317406 199.903000 
O -28.023482 -39.180983 202.494916 
H -30.348179 -26.780282 200.174926 
C -30.241434 -27.113395 201.222163 
H -30.724377 -26.361921 201.871645 
C -28.762363 -27.413450 201.508209 
C -28.228971 -28.560593 200.633212 
O -29.019076 -29.587332 200.518296 
O -27.094155 -28.466692 200.091175 
C -32.924381 -41.850903 196.489835 
C -31.532888 -41.501372 195.925566 
C -30.531626 -41.321977 197.053993 
C -30.007244 -42.451911 197.720560 
C -30.162781 -40.046683 197.537826 
C -29.153667 -42.328504 198.827765 
C -29.307690 -39.902496 198.644583 
C -28.800427 -41.044375 199.297270 
O -27.941482 -40.876343 200.365180 
H -33.785375 -32.318034 197.913159 
C -32.844739 -31.791422 197.688620 
C -31.639191 -32.706136 197.632789 
O -30.486119 -32.250367 197.480888 
H -32.633713 -31.069662 198.496061 
N -31.878693 -34.049626 197.746086 
C -30.825021 -35.049751 197.612821 
C -30.882136 -35.856023 196.309523 
O -29.999957 -36.708001 196.080074 
C -30.652255 -35.907384 198.881590 
C -29.835728 -35.279385 200.024849 
O -29.876232 -35.814428 201.167468 
O -29.084203 -34.286108 199.703541 
N -31.866216 -35.511988 195.452682 
C -31.935591 -35.967611 194.072817 
H -31.190723 -35.442656 193.449429 
H -21.516057 -41.187718 202.032943 
C -22.352883 -41.458335 202.717392 
C -22.780657 -42.907092 202.604289 
O -23.559444 -43.424179 203.426280 
C -23.549348 -40.504992 202.473560 
C -23.069597 -39.044768 202.462148 
C -24.160449 -37.987173 202.554948 
O -25.250713 -38.064311 201.942673 
O -23.821809 -36.975653 203.309745
N -22.262948 -43.591913 201.544428 
C -22.629343 -44.962153 201.252063 
H -21.726399 -45.520632 200.924621 
C -23.733162 -45.091633 200.176207 
C -24.995705 -44.416212 200.593450 
C -25.537108 -43.188651 200.253457 
N -25.836255 -44.914097 201.579517 
C -26.828376 -44.014989 201.808974 
N -26.671039 -42.959289 201.012482 
H -19.262626 -31.517297 202.779917 
C -20.112713 -31.328697 202.090235 
C -21.134591 -30.527441 202.886074 
O -21.350229 -30.747460 204.100637 
C -20.741334 -32.615333 201.497685 
C -21.618364 -33.347589 202.458958 
C -22.961046 -33.684281 202.421876 
N -21.164296 -33.803443 203.688765 
C -22.181642 -34.386197 204.356397 
N -23.289113 -34.330808 203.605074 
N -21.838609 -29.640738 202.175295 
C -22.896307 -28.815019 202.759171 
H -22.557559 -28.453986 203.752878 
C -24.206932 -29.628881 202.942863 
C -24.731714 -30.256983 201.644007 
C -25.741891 -31.386474 201.791610 
O -26.028192 -31.856284 202.940650 
O -26.228693 -31.828682 200.688462 
H -25.026241 -28.889631 209.177779 
C -25.289739 -29.704836 209.874338 
H -25.215628 -29.314217 210.902923 
C -24.413561 -30.957748 209.645441 
C -24.443163 -31.482954 208.234685 
C -25.291520 -32.362663 207.578160 
N -23.509288 -31.107912 207.271062 
C -23.758945 -31.723739 206.097240 
N -24.847269 -32.484138 206.270571 
H -24.708982 -37.374838 210.156821 
C -25.333665 -37.110846 209.273415 
C -26.291844 -38.230557 208.867729 
O -26.013243 -39.080264 207.999777 
C -24.386886 -36.706690 208.146564 
C -25.002952 -36.044657 206.921630 
O -26.261752 -35.784160 206.899404 
O -24.189165 -35.790859 205.977222 
N -27.494123 -38.231794 209.516126 
C -28.420988 -39.357108 209.469748 
C -29.321934 -39.495839 208.235668 
O -29.942431 -40.555112 208.036370 
N -29.390855 -38.416281 207.429186 
C -30.031957 -38.440036 206.118050 
C -29.369858 -37.368583 205.234323 
O -29.576918 -37.356870 204.009614 
O -28.635474 -36.514921 205.903349 
O -25.172119 -37.805514 197.346518 
O -27.365571 -35.976271 197.643680
O -26.528487 -30.216473 198.076407 
O -24.667832 -32.098254 198.200639 
O -29.890545 -30.492030 202.889570 
O -25.759140 -39.386144 199.675553 
O -26.770905 -39.083016 205.076883 
H -30.572483 -30.280037 208.905748 
C -30.997751 -31.051074 208.236197 
H -31.843803 -31.521736 208.767318 
C -30.017611 -32.120353 207.733043 
C -28.949203 -31.559138 206.774185 
C -28.313937 -32.600326 205.871896 
O -28.090723 -33.773140 206.350070 
O -28.025836 -32.231146 204.683942 
H -36.454779 -31.762739 206.758319 
C -36.971479 -32.276075 205.926511 
C -35.965556 -33.022266 205.024739 
C -34.991743 -33.907105 205.827815 
C -33.916666 -34.634469 205.006627 
N -32.899158 -33.708559 204.477611 
C -31.913321 -34.063494 203.623250 
N -31.732275 -35.359031 203.310363 
N -31.146735 -33.135222 203.032568 
O -27.684553 -29.361735 204.219132 
H -32.866008 -42.762984 197.113249 
H -33.271024 -41.033018 197.147105 
H -33.700323 -42.030393 195.723193 
H -31.589961 -40.576118 195.321219 
H -31.191527 -42.305115 195.244152 
H -30.275568 -43.457525 197.367276 
H -28.757064 -43.221951 199.324286 
H -29.005166 -38.912573 199.009355 
H -30.532109 -39.141807 197.033939 
H -27.487819 -41.816141 200.693409 
H -25.187030 -42.464248 199.515267 
H -27.629713 -44.163077 202.534545 
H -28.780515 -37.614387 207.612224 
H -27.660472 -37.511619 210.217138 
H -21.578870 -29.474550 201.204847 
H -21.671446 -43.092685 200.882759 
H -22.971574 -45.417086 202.198112 
H -23.906802 -46.166800 199.978400 
H -23.386861 -44.641318 199.228808 
H -22.507258 -38.837058 201.528943 
H -24.044238 -40.754151 201.515988 
H -21.977828 -41.307075 203.747480 
H -22.366668 -38.863356 203.294112 
H -24.303988 -40.656232 203.267198 
H -26.352687 -29.948848 209.692558 
H -26.156333 -32.925825 207.930573 
H -23.147621 -31.617057 205.195225 
H -23.701326 -33.543164 201.632248 
H -22.110556 -34.855386 205.337376 
H -19.697880 -30.729998 201.258860 
H -23.052216 -27.946231 202.098638 
H -29.896211 -34.452555 197.503452 
H -32.820961 -34.358141 197.987640 
H -32.928940 -31.239539 196.737506 
H -32.459701 -34.730130 195.726316 
H -30.840906 -28.036464 201.318740 
H -19.936027 -33.277923 201.127930
H -21.355856 -32.351495 200.618918 
H -25.929394 -36.234089 209.591699 
H -29.822065 -39.414375 205.637184 
C -31.554190 -38.217765 206.186427 
H -31.990837 -38.276153 205.173908 
H -32.014349 -39.003637 206.808058 
H -31.784537 -37.234060 206.634094 
H -29.061786 -39.288376 210.373598 
H -27.858742 -40.306732 209.536504 
H -23.612381 -36.014176 208.525461 
H -23.842901 -37.591260 207.766536 
H -30.087072 -36.822668 198.616075 
H -31.621906 -36.247531 199.286494 
H -31.436977 -30.506946 207.377134 
H -29.530954 -32.646438 208.574859 
H -28.126568 -31.068106 207.333525 
H -30.596096 -32.895632 207.193355 
H -29.362457 -30.779526 206.109648 
H -28.123739 -26.528283 201.342981 
H -28.609573 -27.729136 202.558713 
H -24.744392 -31.770771 210.316539 
H -23.362187 -30.743164 209.913549 
H -25.307348 -33.105053 205.520149 
H -37.548238 -31.526089 205.357493 
H -35.389193 -32.281303 204.433993 
H -35.563500 -34.684798 206.368977 
H -33.420975 -35.384512 205.655484 
H -37.690921 -32.982401 206.382031 
H -36.504173 -33.647161 204.285534 
H -34.493704 -33.302444 206.613692 
H -32.981938 -32.720837 204.709760 
H -34.382238 -35.178484 204.160768 
H -31.261616 -32.130286 203.195816 
H -32.068416 -36.096400 203.921954 
H -30.233219 -33.378919 202.617540 
H -30.977109 -35.613609 202.658881 
H -24.009230 -30.429708 203.674274 
H -25.204293 -29.507378 200.980740 
H -24.985130 -28.980867 203.386003 
H -23.891548 -30.694338 201.066107 
H -20.227524 -33.660490 204.063742 
H -25.920398 -33.224671 198.671264 
H -29.238446 -32.001457 198.766545 
H -28.705569 -30.797627 199.859670 
H -29.825867 -30.014844 202.013674 
H -29.301455 -31.271051 202.668013 
H -27.173473 -30.192842 204.272787 
H -28.536471 -29.693226 203.822010 
H -32.944782 -35.773905 193.679213 
H -31.728572 -37.049655 194.025068 
H -26.514425 -40.008606 199.863995 
H -25.482395 -39.049741 200.578039 
H -27.638293 -39.548402 203.323533 
H -27.551053 -36.769797 199.056208 
H -28.146989 -35.980083 197.048711 
H -27.198910 -35.042493 198.014626 
H -25.904221 -37.143737 197.357092 
H -25.375549 -38.399495 198.106358 
H -28.011155 -39.875895 201.785549 
H -26.884112 -38.035328 199.719085
H -24.189603 -32.006298 199.044144 
H -25.285732 -31.288549 198.189973 
H -27.224759 -30.879099 198.320356 
H -26.642474 -29.558866 198.830204
H -26.675673 -39.150051 206.052452 
H -26.527104 -38.139340 204.866350 
H -25.707387 -45.788292 202.086612 
H -22.725292 -30.473337 207.427534
