102
benz-c30h62
C 0 0 0
C 0.0 1.391143447420143 0.0
C -1.2047655657741054 2.086715171130214 0.0
C -2.4095311315482104 1.3911434474201414 0.0
C -2.409531131548209 -1.5543122344752192e-15 0.0
C -1.204765565774103 -0.6955717237100716 0.0
H 0.9480550773161863 -0.5473598540950914 0.0
H 0.9480550773161859 1.9385033015152353 0.0
H -1.2047655657741065 3.1814348793203973 0.0
H -3.3575862088643973 1.9385033015152318 0.0
H -3.3575862088643946 -0.5473598540950945 0.0
C -1.2047655657741012 -2.211821723710072 0.0
H -1.7185965588616896 -2.575155242094386 0.8899811598910946
H -1.7185965588616896 -2.575155242094386 -0.8899811598910946
C 0.23678964235603317 -2.7214878712153623 0.0
H 0.7506206354436212 -2.358154352831048 0.8899811598910946
H 0.7506206354436212 -2.358154352831048 -0.8899811598910946
C 0.2367896423560351 -4.250487871215363 0.0
H -0.2770413507315533 -4.613821389599677 0.8899811598910946
H -0.2770413507315533 -4.613821389599677 -0.8899811598910946
C 1.6783448504861695 -4.7601540187206535 0.0
H 2.1921758435737577 -4.3968205003363385 0.8899811598910946
H 2.1921758435737577 -4.3968205003363385 -0.8899811598910946
C 1.678344850486171 -6.289154018720653 0.0
H 1.1645138573985827 -6.652487537104967 0.8899811598910946
H 1.1645138573985827 -6.652487537104967 -0.8899811598910946
C 3.1199000586163055 -6.798820166225944 0.0
H 3.6337310517038937 -6.435486647841629 0.8899811598910946
H 3.6337310517038937 -6.435486647841629 -0.8899811598910946
C 3.119900058616307 -8.327820166225944 0.0
H 2.606069065528718 -8.691153684610258 0.8899811598910946
H 2.606069065528718 -8.691153684610258 -0.8899811598910946
C 4.561455266746441 -8.837486313731235 0.0
H 5.07528625983403 -8.474152795346921 0.8899811598910946
H 5.07528625983403 -8.474152795346921 -0.8899811598910946
C 4.561455266746443 -10.366486313731235 0.0
H 4.047624273658855 -10.729819832115549 0.8899811598910946
H 4.047624273658855 -10.729819832115549 -0.8899811598910946
C 6.003010474876578 -10.876152461236526 0.0
H 6.516841467964166 -10.512818942852212 0.8899811598910946
H 6.516841467964166 -10.512818942852212 -0.8899811598910946
C 6.00301047487658 -12.405152461236526 0.0
H 5.489179481788991 -12.76848597962084 0.8899811598910946
H 5.489179481788991 -12.76848597962084 -0.8899811598910946
C 7.444565683006714 -12.914818608741816 0.0
H 7.958396676094303 -12.551485090357502 0.8899811598910946
H 7.958396676094303 -12.551485090357502 -0.8899811598910946
C 7.444565683006716 -14.443818608741816 0.0
H 6.930734689919127 -14.80715212712613 0.8899811598910946
H 6.930734689919127 -14.80715212712613 -0.8899811598910946
C 8.886120891136851 -14.953484756247107 0.0
H 9.39995188422444 -14.590151237862793 0.8899811598910946
H 9.39995188422444 -14.590151237862793 -0.8899811598910946
C 8.886120891136853 -16.482484756247107 0.0
H 8.372289898049265 -16.845818274631423 0.8899811598910946
H 8.372289898049265 -16.845818274631423 -0.8899811598910946
C 10.327676099266988 -16.992150903752396 0.0
H 10.841507092354576 -16.62881738536808 0.8899811598910946
H 10.841507092354576 -16.62881738536808 -0.8899811598910946
C 10.327676099266991 -18.521150903752396 0.0
H 9.813845106179404 -18.884484422136712 0.8899811598910946
H 9.813845106179404 -18.884484422136712 -0.8899811598910946
C 11.769231307397126 -19.030817051257685 0.0
H 12.283062300484714 -18.66748353287337 0.8899811598910946
H 12.283062300484714 -18.66748353287337 -0.8899811598910946
C 11.76923130739713 -20.559817051257685 0.0
H 11.255400314309542 -20.923150569642 0.8899811598910946
H 11.255400314309542 -20.923150569642 -0.8899811598910946
C 13.210786515527264 -21.069483198762974 0.0
H 13.724617508614852 -20.706149680378658 0.8899811598910946
H 13.724617508614852 -20.706149680378658 -0.8899811598910946
C 13.210786515527268 -22.598483198762974 0.0
H 12.69695552243968 -22.96181671714729 0.8899811598910946
H 12.69695552243968 -22.96181671714729 -0.8899811598910946
C 14.652341723657402 -23.108149346268263 0.0
H 15.16617271674499 -22.744815827883947 0.8899811598910946
H 15.16617271674499 -22.744815827883947 -0.8899811598910946
C 14.652341723657406 -24.637149346268263 0.0
H 14.138510730569818 -25.00048286465258 0.8899811598910946
H 14.138510730569818 -25.00048286465258 -0.8899811598910946
C 16.09389693178754 -25.146815493773552 0.0
H 16.607727924875128 -24.783481975389236 0.8899811598910946
H 16.607727924875128 -24.783481975389236 -0.8899811598910946
C 16.093896931787544 -26.675815493773552 0.0
H 15.580065938699956 -27.039149012157868 0.8899811598910946
H 15.580065938699956 -27.039149012157868 -0.8899811598910946
C 17.53545213991768 -27.18548164127884 0.0
H 18.049283133005268 -26.822148122894525 0.8899811598910946
H 18.049283133005268 -26.822148122894525 -0.8899811598910946
C 17.535452139917684 -28.71448164127884 0.0
H 17.021621146830096 -29.077815159663157 0.8899811598910946
H 17.021621146830096 -29.077815159663157 -0.8899811598910946
C 18.97700734804782 -29.22414778878413 0.0
H 19.490838341135408 -28.860814270399814 0.8899811598910946
H 19.490838341135408 -28.860814270399814 -0.8899811598910946
C 18.977007348047824 -30.75314778878413 0.0
H 18.463176354960236 -31.116481307168446 0.8899811598910946
H 18.463176354960236 -31.116481307168446 -0.8899811598910946
C 20.41856255617796 -31.26281393628942 0.0
H 20.932393549265548 -30.899480417905103 0.8899811598910946
H 20.932393549265548 -30.899480417905103 -0.8899811598910946
H 20.418562556177964 -32.35281393628942 0.0
