102
benz-c30h62.py
C 0.0 0.0 0.0
C 0.0 1.391143447420143 0.0
C -1.2047655657741054 2.086715171130214 0.0
C -2.4095311315482104 1.3911434474201414 0.0
C -2.409531131548209 -1.5543122344752192e-15 0.0
C -1.204765565774103 -0.6955717237100716 0.0
H 1.2047655657741054 -0.6955717237100711 0.0
H 1.204765565774105 2.086715171130215 0.0
H -1.2047655657741068 3.477858618550357 0.0
H -3.6142966973223167 2.086715171130211 0.0
H -3.614296697322313 -0.6955717237100747 0.0
C -1.2047655657741014 -2.0867151711302148 0.0
H -1.7185965588616898 -2.450048689514529 0.8899811598910946
H -1.7185965588616898 -2.450048689514529 -0.8899811598910946
C 0.2565886347502335 -2.6033813115051005 0.0
H 0.7704196278378216 -2.240047793120786 0.8899811598910946
H 0.7704196278378216 -2.240047793120786 -0.8899811598910946
C 0.25658863475023524 -4.1533813115051 0.0
H -0.25724235833735315 -4.516714829889414 0.8899811598910946
H -0.25724235833735315 -4.516714829889414 -0.8899811598910946
C 1.7179428352745707 -4.670047451879986 0.0
H 2.231773828362159 -4.306713933495671 0.8899811598910946
H 2.231773828362159 -4.306713933495671 -0.8899811598910946
C 1.7179428352745725 -6.220047451879986 0.0
H 1.204111842186984 -6.5833809702643 0.8899811598910946
H 1.204111842186984 -6.5833809702643 -0.8899811598910946
C 3.179297035798908 -6.736713592254872 0.0
H 3.6931280288864956 -6.373380073870557 0.8899811598910946
H 3.6931280288864956 -6.373380073870557 -0.8899811598910946
C 3.1792970357989097 -8.286713592254872 0.0
H 2.665466042711321 -8.650047110639186 0.8899811598910946
H 2.665466042711321 -8.650047110639186 -0.8899811598910946
C 4.6406512363232455 -8.803379732629757 0.0
H 5.154482229410833 -8.440046214245443 0.8899811598910946
H 5.154482229410833 -8.440046214245443 -0.8899811598910946
C 4.640651236323247 -10.353379732629758 0.0
H 4.126820243235659 -10.716713251014072 0.8899811598910946
H 4.126820243235659 -10.716713251014072 -0.8899811598910946
C 6.102005436847582 -10.870045873004644 0.0
H 6.61583642993517 -10.50671235462033 0.8899811598910946
H 6.61583642993517 -10.50671235462033 -0.8899811598910946
C 6.102005436847584 -12.420045873004645 0.0
H 5.588174443759995 -12.783379391388959 0.8899811598910946
H 5.588174443759995 -12.783379391388959 -0.8899811598910946
C 7.563359637371919 -12.93671201337953 0.0
H 8.077190630459507 -12.573378494995216 0.8899811598910946
H 8.077190630459507 -12.573378494995216 -0.8899811598910946
C 7.563359637371921 -14.486712013379531 0.0
H 7.049528644284332 -14.850045531763845 0.8899811598910946
H 7.049528644284332 -14.850045531763845 -0.8899811598910946
C 9.024713837896256 -15.003378153754417 0.0
H 9.538544830983843 -14.640044635370103 0.8899811598910946
H 9.538544830983843 -14.640044635370103 -0.8899811598910946
C 9.024713837896257 -16.553378153754416 0.0
H 8.51088284480867 -16.91671167213873 0.8899811598910946
H 8.51088284480867 -16.91671167213873 -0.8899811598910946
C 10.486068038420592 -17.070044294129303 0.0
H 10.99989903150818 -16.70671077574499 0.8899811598910946
H 10.99989903150818 -16.70671077574499 -0.8899811598910946
C 10.486068038420592 -18.620044294129304 0.0
H 9.972237045333003 -18.983377812513616 0.8899811598910946
H 9.972237045333003 -18.983377812513616 -0.8899811598910946
C 11.947422238944927 -19.13671043450419 0.0
H 12.461253232032515 -18.77337691611988 0.8899811598910946
H 12.461253232032515 -18.77337691611988 -0.8899811598910946
C 11.947422238944927 -20.686710434504192 0.0
H 11.433591245857338 -21.050043952888505 0.8899811598910946
H 11.433591245857338 -21.050043952888505 -0.8899811598910946
C 13.408776439469262 -21.20337657487908 0.0
H 13.92260743255685 -20.840043056494768 0.8899811598910946
H 13.92260743255685 -20.840043056494768 -0.8899811598910946
C 13.408776439469262 -22.75337657487908 0.0
H 12.894945446381673 -23.116710093263393 0.8899811598910946
H 12.894945446381673 -23.116710093263393 -0.8899811598910946
C 14.870130639993597 -23.270042715253968 0.0
H 15.383961633081185 -22.906709196869656 0.8899811598910946
H 15.383961633081185 -22.906709196869656 -0.8899811598910946
C 14.870130639993597 -24.82004271525397 0.0
H 14.356299646906008 -25.18337623363828 0.8899811598910946
H 14.356299646906008 -25.18337623363828 -0.8899811598910946
C 16.33148484051793 -25.336708855628856 0.0
H 16.845315833605518 -24.973375337244544 0.8899811598910946
H 16.845315833605518 -24.973375337244544 -0.8899811598910946
C 16.33148484051793 -26.886708855628857 0.0
H 15.817653847430341 -27.25004237401317 0.8899811598910946
H 15.817653847430341 -27.25004237401317 -0.8899811598910946
C 17.792839041042264 -27.403374996003745 0.0
H 18.30667003412985 -27.040041477619432 0.8899811598910946
H 18.30667003412985 -27.040041477619432 -0.8899811598910946
C 17.792839041042264 -28.953374996003745 0.0
H 17.279008047954676 -29.316708514388058 0.8899811598910946
H 17.279008047954676 -29.316708514388058 -0.8899811598910946
C 19.254193241566597 -29.470041136378633 0.0
H 19.768024234654185 -29.10670761799432 0.8899811598910946
H 19.768024234654185 -29.10670761799432 -0.8899811598910946
C 19.254193241566597 -31.020041136378634 0.0
H 18.74036224847901 -31.383374654762946 0.8899811598910946
H 18.74036224847901 -31.383374654762946 -0.8899811598910946
C 20.71554744209093 -31.53670727675352 0.0
H 21.229378435178518 -31.17337375836921 0.8899811598910946
H 21.229378435178518 -31.17337375836921 -0.8899811598910946
H 20.71554744209093 -32.62670727675352 0.0

